I"ë/Users/robhitt/Dropbox%20(Personal)/Documents%20(Rob)/flatiron/rails-dynamic-request-readme-web-1116/app/assets/stylesheets/application.css?type=text/css&pipeline=self&id=82d5582623b2b8f01c3f104e54412c435a0723dfc3dddbdacad24b7e247b2a16:ET