I"ê/Users/robhitt/Dropbox%20(Personal)/Documents%20(Rob)/flatiron/rails-dynamic-request-readme-web-1116/app/assets/javascripts/application.js?type=application/javascript&id=ba86db2a8637041ef5159bfb4166131b927ea4d95c85f01611e2067b26c3f7ae:ET