I"Ý/Users/robhitt/Dropbox%20(Personal)/Documents%20(Rob)/flatiron/rails-dynamic-request-readme-web-1116/app/assets/stylesheets/application.css?type=text/css&id=c04d081983ade4db34f8e7274596d433ed773e591edf827fae6d7f03dbe12be1:ET