I"ø/Users/robhitt/Dropbox%20(Personal)/Documents%20(Rob)/flatiron/rails-dynamic-request-readme-web-1116/app/assets/javascripts/application.js?type=application/javascript&pipeline=self&id=5b9bc0f0c8bb006947ed328332102567554dfd818441b37827d1986bfbed3612:ET