I"Ý/Users/robhitt/Dropbox%20(Personal)/Documents%20(Rob)/flatiron/rails-dynamic-request-readme-web-1116/app/assets/stylesheets/application.css?type=text/css&id=73f8f26b3fb7eb8d47d057ba61eb83e273cf422b180b278c1df9a04d27708803:ET