I"ì/Users/robhitt/Dropbox%20(Personal)/Documents%20(Rob)/flatiron/rails-dynamic-request-readme-web-1116/app/assets/stylesheets/application.css?type=text/css&pipeline=debug&id=4d57b11c7c4e5cd07cb9f4b801a6a66fa5ab663b9b269ee211ee331cb648045b:ET