I"ù/Users/robhitt/Dropbox%20(Personal)/Documents%20(Rob)/flatiron/rails-dynamic-request-readme-web-1116/app/assets/javascripts/application.js?type=application/javascript&pipeline=debug&id=dd13b9b4447aa9f637e3d8f6e2749f04f5a1cb888992536886727d67de1554fb:ET